<?xml version="1.0" encoding="UTF-8"?>

<net version="1.20" junctionCornerDetail="5" limitTurnSpeed="5.50" avoidOverlap="0" xmlns:xsi="http://www.w3.org/2001/XMLSchema-instance" xsi:noNamespaceSchemaLocation="http://sumo.dlr.de/xsd/net_file.xsd">

    <location netOffset="1200.00,900.00" convBoundary="300.00,500.00,1500.00,2000.00" origBoundary="-1200.00,-900.00,800.00,1100.00" projParameter="!"/>

    <edge id=":1_0" function="internal">
        <lane id=":1_0_0" index="0" speed="6.51" length="9.03" shape="1198.40,907.20 1198.05,904.75 1197.00,903.00 1195.25,901.95 1192.80,901.60"/>
    </edge>
    <edge id=":1_1" function="internal">
        <lane id=":1_1_0" index="0" speed="13.89" length="14.40" shape="1198.40,907.20 1198.40,892.80"/>
    </edge>
    <edge id=":1_2" function="internal">
        <lane id=":1_2_0" index="0" speed="8.00" length="4.07" shape="1198.40,907.20 1198.95,903.35 1199.04,903.20"/>
    </edge>
    <edge id=":1_3" function="internal">
        <lane id=":1_3_0" index="0" speed="3.65" length="1.44" shape="1198.40,907.20 1199.20,906.00"/>
    </edge>
    <edge id=":1_16" function="internal">
        <lane id=":1_16_0" index="0" speed="8.00" length="10.13" shape="1199.04,903.20 1200.60,900.60 1203.35,898.95 1207.20,898.40"/>
    </edge>
    <edge id=":1_17" function="internal">
        <lane id=":1_17_0" index="0" speed="3.65" length="3.23" shape="1199.20,906.00 1200.00,905.60 1200.80,906.00 1201.60,907.20"/>
    </edge>
    <edge id=":1_4" function="internal">
        <lane id=":1_4_0" index="0" speed="6.51" length="9.03" shape="1207.20,901.60 1204.75,901.95 1203.00,903.00 1201.95,904.75 1201.60,907.20"/>
    </edge>
    <edge id=":1_5" function="internal">
        <lane id=":1_5_0" index="0" speed="13.89" length="14.40" shape="1207.20,901.60 1192.80,901.60"/>
    </edge>
    <edge id=":1_6" function="internal">
        <lane id=":1_6_0" index="0" speed="8.00" length="14.19" shape="1207.20,901.60 1203.35,901.05 1200.60,899.40 1198.95,896.65 1198.40,892.80"/>
    </edge>
    <edge id=":1_7" function="internal">
        <lane id=":1_7_0" index="0" speed="3.65" length="4.67" shape="1207.20,901.60 1206.00,900.80 1205.60,900.00 1206.00,899.20 1207.20,898.40"/>
    </edge>
    <edge id=":1_8" function="internal">
        <lane id=":1_8_0" index="0" speed="6.51" length="9.03" shape="1201.60,892.80 1201.95,895.25 1203.00,897.00 1204.75,898.05 1207.20,898.40"/>
    </edge>
    <edge id=":1_9" function="internal">
        <lane id=":1_9_0" index="0" speed="13.89" length="14.40" shape="1201.60,892.80 1201.60,907.20"/>
    </edge>
    <edge id=":1_10" function="internal">
        <lane id=":1_10_0" index="0" speed="8.00" length="4.07" shape="1201.60,892.80 1201.05,896.65 1200.96,896.80"/>
    </edge>
    <edge id=":1_11" function="internal">
        <lane id=":1_11_0" index="0" speed="3.65" length="1.44" shape="1201.60,892.80 1200.80,894.00"/>
    </edge>
    <edge id=":1_18" function="internal">
        <lane id=":1_18_0" index="0" speed="8.00" length="10.13" shape="1200.96,896.80 1199.40,899.40 1196.65,901.05 1192.80,901.60"/>
    </edge>
    <edge id=":1_19" function="internal">
        <lane id=":1_19_0" index="0" speed="3.65" length="3.23" shape="1200.80,894.00 1200.00,894.40 1199.20,894.00 1198.40,892.80"/>
    </edge>
    <edge id=":1_12" function="internal">
        <lane id=":1_12_0" index="0" speed="6.51" length="9.03" shape="1192.80,898.40 1195.25,898.05 1197.00,897.00 1198.05,895.25 1198.40,892.80"/>
    </edge>
    <edge id=":1_13" function="internal">
        <lane id=":1_13_0" index="0" speed="13.89" length="14.40" shape="1192.80,898.40 1207.20,898.40"/>
    </edge>
    <edge id=":1_14" function="internal">
        <lane id=":1_14_0" index="0" speed="8.00" length="14.19" shape="1192.80,898.40 1196.65,898.95 1199.40,900.60 1201.05,903.35 1201.60,907.20"/>
    </edge>
    <edge id=":1_15" function="internal">
        <lane id=":1_15_0" index="0" speed="3.65" length="4.67" shape="1192.80,898.40 1194.00,899.20 1194.40,900.00 1194.00,900.80 1192.80,901.60"/>
    </edge>
    <edge id=":10_0" function="internal">
        <lane id=":10_0_0" index="0" speed="6.51" length="9.03" shape="1098.40,907.20 1098.05,904.75 1097.00,903.00 1095.25,901.95 1092.80,901.60"/>
    </edge>
    <edge id=":10_1" function="internal">
        <lane id=":10_1_0" index="0" speed="8.00" length="14.19" shape="1098.40,907.20 1098.95,903.35 1100.60,900.60 1103.35,898.95 1107.20,898.40"/>
    </edge>
    <edge id=":10_2" function="internal">
        <lane id=":10_2_0" index="0" speed="3.65" length="4.67" shape="1098.40,907.20 1099.20,906.00 1100.00,905.60 1100.80,906.00 1101.60,907.20"/>
    </edge>
    <edge id=":10_3" function="internal">
        <lane id=":10_3_0" index="0" speed="6.51" length="9.03" shape="1107.20,901.60 1104.75,901.95 1103.00,903.00 1101.95,904.75 1101.60,907.20"/>
    </edge>
    <edge id=":10_4" function="internal">
        <lane id=":10_4_0" index="0" speed="13.89" length="14.40" shape="1107.20,901.60 1092.80,901.60"/>
    </edge>
    <edge id=":10_5" function="internal">
        <lane id=":10_5_0" index="0" speed="3.65" length="1.44" shape="1107.20,901.60 1106.00,900.80"/>
    </edge>
    <edge id=":10_9" function="internal">
        <lane id=":10_9_0" index="0" speed="3.65" length="3.23" shape="1106.00,900.80 1105.60,900.00 1106.00,899.20 1107.20,898.40"/>
    </edge>
    <edge id=":10_6" function="internal">
        <lane id=":10_6_0" index="0" speed="13.89" length="14.40" shape="1092.80,898.40 1107.20,898.40"/>
    </edge>
    <edge id=":10_7" function="internal">
        <lane id=":10_7_0" index="0" speed="8.00" length="4.07" shape="1092.80,898.40 1096.65,898.95 1096.80,899.04"/>
    </edge>
    <edge id=":10_8" function="internal">
        <lane id=":10_8_0" index="0" speed="3.65" length="1.44" shape="1092.80,898.40 1094.00,899.20"/>
    </edge>
    <edge id=":10_10" function="internal">
        <lane id=":10_10_0" index="0" speed="8.00" length="10.13" shape="1096.80,899.04 1099.40,900.60 1101.05,903.35 1101.60,907.20"/>
    </edge>
    <edge id=":10_11" function="internal">
        <lane id=":10_11_0" index="0" speed="3.65" length="3.23" shape="1094.00,899.20 1094.40,900.00 1094.00,900.80 1092.80,901.60"/>
    </edge>
    <edge id=":1001_0" function="internal">
        <lane id=":1001_0_0" index="0" speed="7.65" length="12.89" shape="407.16,709.42 403.78,706.54 400.80,705.04 398.22,704.94 396.04,706.22"/>
    </edge>
    <edge id=":1001_1" function="internal">
        <lane id=":1001_1_0" index="0" speed="7.42" length="19.31" shape="407.16,709.42 403.31,704.60 402.79,701.16 405.59,699.09 411.73,698.40"/>
    </edge>
    <edge id=":1001_2" function="internal">
        <lane id=":1001_2_0" index="0" speed="3.65" length="4.67" shape="407.16,709.42 406.88,708.01 407.16,707.16 408.01,706.88 409.42,707.16"/>
    </edge>
    <edge id=":1001_3" function="internal">
        <lane id=":1001_3_0" index="0" speed="5.47" length="9.74" shape="411.73,701.60 408.63,701.95 407.22,702.99 407.48,704.73 409.42,707.16"/>
    </edge>
    <edge id=":1001_4" function="internal">
        <lane id=":1001_4_0" index="0" speed="13.40" length="16.68" shape="411.73,701.60 407.66,701.83 403.33,702.59 399.28,704.01 396.04,706.22"/>
    </edge>
    <edge id=":1001_5" function="internal">
        <lane id=":1001_5_0" index="0" speed="3.65" length="1.44" shape="411.73,701.60 410.53,700.80"/>
    </edge>
    <edge id=":1001_9" function="internal">
        <lane id=":1001_9_0" index="0" speed="3.65" length="3.23" shape="410.53,700.80 410.13,700.00 410.53,699.20 411.73,698.40"/>
    </edge>
    <edge id=":1001_6" function="internal">
        <lane id=":1001_6_0" index="0" speed="13.89" length="19.24" shape="393.78,703.96 396.98,701.53 401.04,699.79 405.96,698.75 411.73,698.40"/>
    </edge>
    <edge id=":1001_7" function="internal">
        <lane id=":1001_7_0" index="0" speed="8.94" length="4.74" shape="393.78,703.96 397.09,701.83 397.89,701.79"/>
    </edge>
    <edge id=":1001_8" function="internal">
        <lane id=":1001_8_0" index="0" speed="3.65" length="1.44" shape="393.78,703.96 395.19,703.68"/>
    </edge>
    <edge id=":1001_10" function="internal">
        <lane id=":1001_10_0" index="0" speed="8.94" length="13.25" shape="397.89,701.79 400.80,701.65 404.91,703.43 409.42,707.16"/>
    </edge>
    <edge id=":1001_11" function="internal">
        <lane id=":1001_11_0" index="0" speed="3.65" length="3.23" shape="395.19,703.68 396.04,703.96 396.32,704.81 396.04,706.22"/>
    </edge>
    <edge id=":1024_0" function="internal">
        <lane id=":1024_0_0" index="0" speed="6.51" length="9.03" shape="498.40,1207.20 498.05,1204.75 497.00,1203.00 495.25,1201.95 492.80,1201.60"/>
    </edge>
    <edge id=":1024_1" function="internal">
        <lane id=":1024_1_0" index="0" speed="13.89" length="14.40" shape="498.40,1207.20 498.40,1192.80"/>
    </edge>
    <edge id=":1024_2" function="internal">
        <lane id=":1024_2_0" index="0" speed="8.00" length="4.07" shape="498.40,1207.20 498.95,1203.35 499.04,1203.20"/>
    </edge>
    <edge id=":1024_3" function="internal">
        <lane id=":1024_3_0" index="0" speed="3.65" length="1.44" shape="498.40,1207.20 499.20,1206.00"/>
    </edge>
    <edge id=":1024_16" function="internal">
        <lane id=":1024_16_0" index="0" speed="8.00" length="10.13" shape="499.04,1203.20 500.60,1200.60 503.35,1198.95 507.20,1198.40"/>
    </edge>
    <edge id=":1024_17" function="internal">
        <lane id=":1024_17_0" index="0" speed="3.65" length="3.23" shape="499.20,1206.00 500.00,1205.60 500.80,1206.00 501.60,1207.20"/>
    </edge>
    <edge id=":1024_4" function="internal">
        <lane id=":1024_4_0" index="0" speed="6.51" length="9.03" shape="507.20,1201.60 504.75,1201.95 503.00,1203.00 501.95,1204.75 501.60,1207.20"/>
    </edge>
    <edge id=":1024_5" function="internal">
        <lane id=":1024_5_0" index="0" speed="13.89" length="14.40" shape="507.20,1201.60 492.80,1201.60"/>
    </edge>
    <edge id=":1024_6" function="internal">
        <lane id=":1024_6_0" index="0" speed="8.00" length="14.19" shape="507.20,1201.60 503.35,1201.05 500.60,1199.40 498.95,1196.65 498.40,1192.80"/>
    </edge>
    <edge id=":1024_7" function="internal">
        <lane id=":1024_7_0" index="0" speed="3.65" length="4.67" shape="507.20,1201.60 506.00,1200.80 505.60,1200.00 506.00,1199.20 507.20,1198.40"/>
    </edge>
    <edge id=":1024_8" function="internal">
        <lane id=":1024_8_0" index="0" speed="6.51" length="9.03" shape="501.60,1192.80 501.95,1195.25 503.00,1197.00 504.75,1198.05 507.20,1198.40"/>
    </edge>
    <edge id=":1024_9" function="internal">
        <lane id=":1024_9_0" index="0" speed="13.89" length="14.40" shape="501.60,1192.80 501.60,1207.20"/>
    </edge>
    <edge id=":1024_10" function="internal">
        <lane id=":1024_10_0" index="0" speed="8.00" length="4.07" shape="501.60,1192.80 501.05,1196.65 500.96,1196.80"/>
    </edge>
    <edge id=":1024_11" function="internal">
        <lane id=":1024_11_0" index="0" speed="3.65" length="1.44" shape="501.60,1192.80 500.80,1194.00"/>
    </edge>
    <edge id=":1024_18" function="internal">
        <lane id=":1024_18_0" index="0" speed="8.00" length="10.13" shape="500.96,1196.80 499.40,1199.40 496.65,1201.05 492.80,1201.60"/>
    </edge>
    <edge id=":1024_19" function="internal">
        <lane id=":1024_19_0" index="0" speed="3.65" length="3.23" shape="500.80,1194.00 500.00,1194.40 499.20,1194.00 498.40,1192.80"/>
    </edge>
    <edge id=":1024_12" function="internal">
        <lane id=":1024_12_0" index="0" speed="6.51" length="9.03" shape="492.80,1198.40 495.25,1198.05 497.00,1197.00 498.05,1195.25 498.40,1192.80"/>
    </edge>
    <edge id=":1024_13" function="internal">
        <lane id=":1024_13_0" index="0" speed="13.89" length="14.40" shape="492.80,1198.40 507.20,1198.40"/>
    </edge>
    <edge id=":1024_14" function="internal">
        <lane id=":1024_14_0" index="0" speed="8.00" length="14.19" shape="492.80,1198.40 496.65,1198.95 499.40,1200.60 501.05,1203.35 501.60,1207.20"/>
    </edge>
    <edge id=":1024_15" function="internal">
        <lane id=":1024_15_0" index="0" speed="3.65" length="4.67" shape="492.80,1198.40 494.00,1199.20 494.40,1200.00 494.00,1200.80 492.80,1201.60"/>
    </edge>
    <edge id=":108_0" function="internal">
        <lane id=":108_0_0" index="0" speed="7.65" length="12.89" shape="1098.40,1011.73 1098.05,1007.30 1097.00,1004.13 1095.25,1002.23 1092.80,1001.60"/>
    </edge>
    <edge id=":108_1" function="internal">
        <lane id=":108_1_0" index="0" speed="13.89" length="18.93" shape="1098.40,1011.73 1098.40,992.80"/>
    </edge>
    <edge id=":108_2" function="internal">
        <lane id=":108_2_0" index="0" speed="7.42" length="6.00" shape="1098.40,1011.73 1099.07,1005.76"/>
    </edge>
    <edge id=":108_3" function="internal">
        <lane id=":108_3_0" index="0" speed="3.65" length="1.44" shape="1098.40,1011.73 1099.20,1010.53"/>
    </edge>
    <edge id=":108_16" function="internal">
        <lane id=":108_16_0" index="0" speed="7.42" length="13.30" shape="1099.07,1005.76 1099.09,1005.59 1101.16,1002.79 1104.60,1003.31 1109.42,1007.16"/>
    </edge>
    <edge id=":108_17" function="internal">
        <lane id=":108_17_0" index="0" speed="3.65" length="3.23" shape="1099.20,1010.53 1100.00,1010.13 1100.80,1010.53 1101.60,1011.73"/>
    </edge>
    <edge id=":108_4" function="internal">
        <lane id=":108_4_0" index="0" speed="5.47" length="9.74" shape="1107.16,1009.42 1104.73,1007.48 1102.99,1007.22 1101.95,1008.63 1101.60,1011.73"/>
    </edge>
    <edge id=":108_5" function="internal">
        <lane id=":108_5_0" index="0" speed="13.42" length="16.74" shape="1107.16,1009.42 1103.33,1006.00 1099.66,1003.56 1096.15,1002.09 1092.80,1001.60"/>
    </edge>
    <edge id=":108_6" function="internal">
        <lane id=":108_6_0" index="0" speed="13.89" length="19.06" shape="1107.16,1009.42 1103.94,1005.53 1101.14,1000.94 1099.15,996.44 1098.40,992.80"/>
    </edge>
    <edge id=":108_7" function="internal">
        <lane id=":108_7_0" index="0" speed="3.65" length="4.67" shape="1107.16,1009.42 1106.88,1008.01 1107.16,1007.16 1108.01,1006.88 1109.42,1007.16"/>
    </edge>
    <edge id=":108_8" function="internal">
        <lane id=":108_8_0" index="0" speed="13.42" length="16.74" shape="1101.60,992.80 1102.09,996.15 1103.56,999.66 1106.00,1003.33 1109.42,1007.16"/>
    </edge>
    <edge id=":108_9" function="internal">
        <lane id=":108_9_0" index="0" speed="13.89" length="18.93" shape="1101.60,992.80 1101.60,1011.73"/>
    </edge>
    <edge id=":108_10" function="internal">
        <lane id=":108_10_0" index="0" speed="8.00" length="4.07" shape="1101.60,992.80 1101.05,996.65 1100.96,996.80"/>
    </edge>
    <edge id=":108_11" function="internal">
        <lane id=":108_11_0" index="0" speed="3.65" length="1.44" shape="1101.60,992.80 1100.80,994.00"/>
    </edge>
    <edge id=":108_18" function="internal">
        <lane id=":108_18_0" index="0" speed="8.00" length="10.13" shape="1100.96,996.80 1099.40,999.40 1096.65,1001.05 1092.80,1001.60"/>
    </edge>
    <edge id=":108_19" function="internal">
        <lane id=":108_19_0" index="0" speed="3.65" length="3.23" shape="1100.80,994.00 1100.00,994.40 1099.20,994.00 1098.40,992.80"/>
    </edge>
    <edge id=":108_12" function="internal">
        <lane id=":108_12_0" index="0" speed="6.51" length="9.03" shape="1092.80,998.40 1095.25,998.05 1097.00,997.00 1098.05,995.25 1098.40,992.80"/>
    </edge>
    <edge id=":108_13" function="internal">
        <lane id=":108_13_0" index="0" speed="13.89" length="19.24" shape="1092.80,998.40 1096.79,998.95 1100.89,1000.59 1105.10,1003.33 1109.42,1007.16"/>
    </edge>
    <edge id=":108_14" function="internal">
        <lane id=":108_14_0" index="0" speed="8.71" length="17.02" shape="1092.80,998.40 1096.03,999.73 1098.85,1003.07 1100.84,1007.40 1101.60,1011.73"/>
    </edge>
    <edge id=":108_15" function="internal">
        <lane id=":108_15_0" index="0" speed="3.65" length="4.67" shape="1092.80,998.40 1094.00,999.20 1094.40,1000.00 1094.00,1000.80 1092.80,1001.60"/>
    </edge>
    <edge id=":1149_0" function="internal">
        <lane id=":1149_0_0" index="0" speed="7.65" length="12.89" shape="498.40,807.20 497.77,804.75 495.87,803.00 492.70,801.95 488.27,801.60"/>
    </edge>
    <edge id=":1149_1" function="internal">
        <lane id=":1149_1_0" index="0" speed="13.42" length="16.74" shape="498.40,807.20 497.91,803.85 496.44,800.34 494.00,796.67 490.58,792.84"/>
    </edge>
    <edge id=":1149_2" function="internal">
        <lane id=":1149_2_0" index="0" speed="3.65" length="1.25" shape="498.40,807.20 499.09,806.16"/>
    </edge>
    <edge id=":1149_9" function="internal">
        <lane id=":1149_9_0" index="0" speed="3.65" length="3.42" shape="499.09,806.16 499.20,806.00 500.00,805.60 500.80,806.00 501.60,807.20"/>
    </edge>
    <edge id=":1149_3" function="internal">
        <lane id=":1149_3_0" index="0" speed="13.89" length="19.09" shape="492.84,790.58 495.70,793.96 498.55,798.34 500.73,802.99 501.60,807.20"/>
    </edge>
    <edge id=":1149_4" function="internal">
        <lane id=":1149_4_0" index="0" speed="7.42" length="6.93" shape="492.84,790.58 496.69,795.40 496.80,796.15"/>
    </edge>
    <edge id=":1149_5" function="internal">
        <lane id=":1149_5_0" index="0" speed="3.65" length="1.44" shape="492.84,790.58 493.12,791.99"/>
    </edge>
    <edge id=":1149_10" function="internal">
        <lane id=":1149_10_0" index="0" speed="7.42" length="12.37" shape="496.80,796.15 497.21,798.84 494.41,800.91 488.27,801.60"/>
    </edge>
    <edge id=":1149_11" function="internal">
        <lane id=":1149_11_0" index="0" speed="3.65" length="3.23" shape="493.12,791.99 492.84,792.84 491.99,793.12 490.58,792.84"/>
    </edge>
    <edge id=":1149_6" function="internal">
        <lane id=":1149_6_0" index="0" speed="5.47" length="9.74" shape="488.27,798.40 491.37,798.05 492.78,797.01 492.52,795.27 490.58,792.84"/>
    </edge>
    <edge id=":1149_7" function="internal">
        <lane id=":1149_7_0" index="0" speed="8.94" length="17.99" shape="488.27,798.40 494.10,798.95 498.27,800.60 500.77,803.35 501.60,807.20"/>
    </edge>
    <edge id=":1149_8" function="internal">
        <lane id=":1149_8_0" index="0" speed="3.65" length="4.67" shape="488.27,798.40 489.47,799.20 489.87,800.00 489.47,800.80 488.27,801.60"/>
    </edge>
    <edge id=":1153_0" function="internal">
        <lane id=":1153_0_0" index="0" speed="13.89" length="18.93" shape="398.40,1211.73 398.40,1192.80"/>
    </edge>
    <edge id=":1153_1" function="internal">
        <lane id=":1153_1_0" index="0" speed="9.73" length="5.01" shape="398.40,1211.73 399.11,1206.76"/>
    </edge>
    <edge id=":1153_2" function="internal">
        <lane id=":1153_2_0" index="0" speed="7.42" length="6.00" shape="398.40,1211.73 399.07,1205.76"/>
    </edge>
    <edge id=":1153_3" function="internal">
        <lane id=":1153_3_0" index="0" speed="3.65" length="1.44" shape="398.40,1211.73 399.20,1210.53"/>
    </edge>
    <edge id=":1153_16" function="internal">
        <lane id=":1153_16_0" index="0" speed="9.73" length="16.48" shape="399.11,1206.76 399.23,1205.90 401.73,1201.73 405.90,1199.23 411.73,1198.40"/>
    </edge>
    <edge id=":1153_17" function="internal">
        <lane id=":1153_17_0" index="0" speed="7.42" length="13.30" shape="399.07,1205.76 399.09,1205.59 401.16,1202.79 404.60,1203.31 409.42,1207.16"/>
    </edge>
    <edge id=":1153_18" function="internal">
        <lane id=":1153_18_0" index="0" speed="3.65" length="3.23" shape="399.20,1210.53 400.00,1210.13 400.80,1210.53 401.60,1211.73"/>
    </edge>
    <edge id=":1153_4" function="internal">
        <lane id=":1153_4_0" index="0" speed="5.47" length="9.74" shape="407.16,1209.42 404.73,1207.48 402.99,1207.22 401.95,1208.63 401.60,1211.73"/>
    </edge>
    <edge id=":1153_5" function="internal">
        <lane id=":1153_5_0" index="0" speed="13.89" length="19.09" shape="407.16,1209.42 404.30,1206.04 401.45,1201.66 399.27,1197.01 398.40,1192.80"/>
    </edge>
    <edge id=":1153_6" function="internal">
        <lane id=":1153_6_0" index="0" speed="7.42" length="19.31" shape="407.16,1209.42 403.31,1204.60 402.79,1201.16 405.59,1199.09 411.73,1198.40"/>
    </edge>
    <edge id=":1153_7" function="internal">
        <lane id=":1153_7_0" index="0" speed="3.65" length="4.67" shape="407.16,1209.42 406.88,1208.01 407.16,1207.16 408.01,1206.88 409.42,1207.16"/>
    </edge>
    <edge id=":1153_8" function="internal">
        <lane id=":1153_8_0" index="0" speed="5.47" length="9.74" shape="411.73,1201.60 408.63,1201.95 407.22,1202.99 407.48,1204.73 409.42,1207.16"/>
    </edge>
    <edge id=":1153_9" function="internal">
        <lane id=":1153_9_0" index="0" speed="8.54" length="16.33" shape="411.73,1201.60 407.30,1202.23 404.13,1204.13 402.23,1207.30 401.60,1211.73"/>
    </edge>
    <edge id=":1153_10" function="internal">
        <lane id=":1153_10_0" index="0" speed="8.94" length="17.99" shape="411.73,1201.60 405.90,1201.05 401.73,1199.40 399.23,1196.65 398.40,1192.80"/>
    </edge>
    <edge id=":1153_11" function="internal">
        <lane id=":1153_11_0" index="0" speed="3.65" length="4.67" shape="411.73,1201.60 410.53,1200.80 410.13,1200.00 410.53,1199.20 411.73,1198.40"/>
    </edge>
    <edge id=":1153_12" function="internal">
        <lane id=":1153_12_0" index="0" speed="7.65" length="12.89" shape="401.60,1192.80 402.23,1195.25 404.13,1197.00 407.30,1198.05 411.73,1198.40"/>
    </edge>
    <edge id=":1153_13" function="internal">
        <lane id=":1153_13_0" index="0" speed="13.42" length="16.74" shape="401.60,1192.80 402.09,1196.15 403.56,1199.66 406.00,1203.33 409.42,1207.16"/>
    </edge>
    <edge id=":1153_14" function="internal">
        <lane id=":1153_14_0" index="0" speed="13.89" length="18.93" shape="401.60,1192.80 401.60,1211.73"/>
    </edge>
    <edge id=":1153_15" function="internal">
        <lane id=":1153_15_0" index="0" speed="3.65" length="1.44" shape="401.60,1192.80 400.80,1194.00"/>
    </edge>
    <edge id=":1153_19" function="internal">
        <lane id=":1153_19_0" index="0" speed="3.65" length="3.23" shape="400.80,1194.00 400.00,1194.40 399.20,1194.00 398.40,1192.80"/>
    </edge>
    <edge id=":1167_0" function="internal">
        <lane id=":1167_0_0" index="0" speed="5.47" length="9.74" shape="498.40,1311.73 498.05,1308.63 497.01,1307.22 495.27,1307.48 492.84,1309.42"/>
    </edge>
    <edge id=":1167_1" function="internal">
        <lane id=":1167_1_0" index="0" speed="13.89" length="20.72" shape="498.40,1311.73 497.67,1307.16 495.81,1301.73 493.29,1296.58 490.58,1292.84"/>
    </edge>
    <edge id=":1167_2" function="internal">
        <lane id=":1167_2_0" index="0" speed="13.89" length="23.45" shape="498.40,1311.73 498.40,1288.27"/>
    </edge>
    <edge id=":1167_3" function="internal">
        <lane id=":1167_3_0" index="0" speed="3.65" length="1.44" shape="498.40,1311.73 499.20,1310.53"/>
    </edge>
    <edge id=":1167_16" function="internal">
        <lane id=":1167_16_0" index="0" speed="3.65" length="3.23" shape="499.20,1310.53 500.00,1310.13 500.80,1310.53 501.60,1311.73"/>
    </edge>
    <edge id=":1167_4" function="internal">
        <lane id=":1167_4_0" index="0" speed="13.89" length="23.45" shape="501.60,1288.27 501.60,1311.73"/>
    </edge>
    <edge id=":1167_5" function="internal">
        <lane id=":1167_5_0" index="0" speed="13.89" length="23.49" shape="501.60,1288.27 501.05,1294.24 499.41,1299.76 496.67,1304.82 492.84,1309.42"/>
    </edge>
    <edge id=":1167_6" function="internal">
        <lane id=":1167_6_0" index="0" speed="7.42" length="19.31" shape="501.60,1288.27 500.91,1294.41 498.84,1297.21 495.40,1296.69 490.58,1292.84"/>
    </edge>
    <edge id=":1167_7" function="internal">
        <lane id=":1167_7_0" index="0" speed="3.65" length="1.44" shape="501.60,1288.27 500.80,1289.47"/>
    </edge>
    <edge id=":1167_17" function="internal">
        <lane id=":1167_17_0" index="0" speed="3.65" length="3.23" shape="500.80,1289.47 500.00,1289.87 499.20,1289.47 498.40,1288.27"/>
    </edge>
    <edge id=":1167_8" function="internal">
        <lane id=":1167_8_0" index="0" speed="5.47" length="9.74" shape="492.84,1290.58 495.27,1292.52 497.01,1292.78 498.05,1291.37 498.40,1288.27"/>
    </edge>
    <edge id=":1167_9" function="internal">
        <lane id=":1167_9_0" index="0" speed="13.89" length="23.49" shape="492.84,1290.58 496.67,1295.18 499.41,1300.24 501.05,1305.76 501.60,1311.73"/>
    </edge>
    <edge id=":1167_10" function="internal">
        <lane id=":1167_10_0" index="0" speed="9.73" length="21.49" shape="492.84,1290.58 496.37,1295.29 497.55,1300.00 496.37,1304.71 492.84,1309.42"/>
    </edge>
    <edge id=":1167_11" function="internal">
        <lane id=":1167_11_0" index="0" speed="3.65" length="1.44" shape="492.84,1290.58 493.12,1291.99"/>
    </edge>
    <edge id=":1167_18" function="internal">
        <lane id=":1167_18_0" index="0" speed="3.65" length="3.23" shape="493.12,1291.99 492.84,1292.84 491.99,1293.12 490.58,1292.84"/>
    </edge>
    <edge id=":1167_12" function="internal">
        <lane id=":1167_12_0" index="0" speed="8.54" length="16.33" shape="490.58,1307.16 493.26,1303.58 494.16,1300.00 493.26,1296.42 490.58,1292.84"/>
    </edge>
    <edge id=":1167_13" function="internal">
        <lane id=":1167_13_0" index="0" speed="13.89" length="20.98" shape="490.58,1307.16 494.00,1303.05 496.44,1298.53 497.91,1293.60 498.40,1288.27"/>
    </edge>
    <edge id=":1167_14" function="internal">
        <lane id=":1167_14_0" index="0" speed="7.42" length="19.31" shape="490.58,1307.16 495.40,1303.31 498.84,1302.79 500.91,1305.59 501.60,1311.73"/>
    </edge>
    <edge id=":1167_15" function="internal">
        <lane id=":1167_15_0" index="0" speed="3.65" length="1.44" shape="490.58,1307.16 491.99,1306.88"/>
    </edge>
    <edge id=":1167_19" function="internal">
        <lane id=":1167_19_0" index="0" speed="3.65" length="3.23" shape="491.99,1306.88 492.84,1307.16 493.12,1308.01 492.84,1309.42"/>
    </edge>
    <edge id=":1203_0" function="internal">
        <lane id=":1203_0_0" index="0" speed="10.84" length="20.30" shape="302.67,808.92 301.22,804.31 301.48,799.72 303.46,795.14 307.16,790.58"/>
    </edge>
    <edge id=":1203_1" function="internal">
        <lane id=":1203_1_0" index="0" speed="7.81" length="7.10" shape="302.67,808.92 301.27,804.32 301.96,802.14"/>
    </edge>
    <edge id=":1203_2" function="internal">
        <lane id=":1203_2_0" index="0" speed="3.65" length="1.44" shape="302.67,808.92 302.85,807.49"/>
    </edge>
    <edge id=":1203_9" function="internal">
        <lane id=":1203_9_0" index="0" speed="7.81" length="11.14" shape="301.96,802.14 302.31,801.03 305.79,799.06 311.73,798.40"/>
    </edge>
    <edge id=":1203_10" function="internal">
        <lane id=":1203_10_0" index="0" speed="3.65" length="3.23" shape="302.85,807.49 303.39,806.78 304.28,806.78 305.54,807.49"/>
    </edge>
    <edge id=":1203_3" function="internal">
        <lane id=":1203_3_0" index="0" speed="6.22" length="11.07" shape="311.73,801.60 307.91,801.97 305.61,803.07 304.82,804.91 305.54,807.49"/>
    </edge>
    <edge id=":1203_4" function="internal">
        <lane id=":1203_4_0" index="0" speed="7.42" length="19.31" shape="311.73,801.60 305.59,800.91 302.79,798.84 303.31,795.40 307.16,790.58"/>
    </edge>
    <edge id=":1203_5" function="internal">
        <lane id=":1203_5_0" index="0" speed="3.65" length="4.67" shape="311.73,801.60 310.53,800.80 310.13,800.00 310.53,799.20 311.73,798.40"/>
    </edge>
    <edge id=":1203_6" function="internal">
        <lane id=":1203_6_0" index="0" speed="5.47" length="9.74" shape="309.42,792.84 307.48,795.27 307.22,797.01 308.63,798.05 311.73,798.40"/>
    </edge>
    <edge id=":1203_7" function="internal">
        <lane id=":1203_7_0" index="0" speed="9.75" length="16.28" shape="309.42,792.84 306.38,796.56 304.71,800.24 304.43,803.89 305.54,807.49"/>
    </edge>
    <edge id=":1203_8" function="internal">
        <lane id=":1203_8_0" index="0" speed="3.65" length="1.33" shape="309.42,792.84 308.12,793.10"/>
    </edge>
    <edge id=":1203_11" function="internal">
        <lane id=":1203_11_0" index="0" speed="3.65" length="3.34" shape="308.12,793.10 308.01,793.12 307.16,792.84 306.88,791.99 307.16,790.58"/>
    </edge>
    <edge id=":1208_0" function="internal">
        <lane id=":1208_0_0" index="0" speed="13.89" length="0.75" shape="398.40,1000.76 398.40,1000.53 398.38,1000.38 398.33,1000.24 398.23,1000.04"/>
    </edge>
    <edge id=":1208_1" function="internal">
        <lane id=":1208_1_0" index="0" speed="3.65" length="1.44" shape="398.40,1000.76 399.20,999.56"/>
    </edge>
    <edge id=":1208_4" function="internal">
        <lane id=":1208_4_0" index="0" speed="3.65" length="3.23" shape="399.20,999.56 400.00,999.16 400.80,999.56 401.60,1000.76"/>
    </edge>
    <edge id=":1208_2" function="internal">
        <lane id=":1208_2_0" index="0" speed="8.09" length="2.24" shape="401.09,998.61 401.38,999.21 401.53,999.64 401.59,1000.09 401.60,1000.76"/>
    </edge>
    <edge id=":1208_3" function="internal">
        <lane id=":1208_3_0" index="0" speed="3.65" length="1.44" shape="401.09,998.61 400.91,1000.04"/>
    </edge>
    <edge id=":1208_5" function="internal">
        <lane id=":1208_5_0" index="0" speed="3.65" length="3.23" shape="400.91,1000.04 400.38,1000.76 399.48,1000.76 398.23,1000.04"/>
    </edge>
    <edge id=":1210_0" function="internal">
        <lane id=":1210_0_0" index="0" speed="13.89" length="19.09" shape="403.96,1406.22 401.60,1402.63 399.85,1397.80 398.77,1392.69 398.40,1388.27"/>
    </edge>
    <edge id=":1210_1" function="internal">